* Diode subcircuit definition\
*$
.SUBCKT CD214C-F3600 1 2
D1 1 2 CD214C-F3600
.MODEL CD214C-F3600 D(IS=4.82E-11 N=1.99 BV=360 IBV=1E-5 RS=0.33 CJO=1.85E-12 TT=2.02E-9)
.ENDS
*$
